data_image0
_chemical_formula_structural       Fe16Ni8O32
_chemical_formula_sum              "Fe16 Ni8 O32"
_cell_length_a       8.48002
_cell_length_b       8.48002
_cell_length_c       8.48002
_cell_angle_alpha    90.0
_cell_angle_beta     90.0
_cell_angle_gamma    90.0

_space_group_name_H-M_alt    "P 1"
_space_group_IT_number       1

loop_
  _space_group_symop_operation_xyz
  'x, y, z'

loop_
  _atom_site_type_symbol
  _atom_site_label
  _atom_site_symmetry_multiplicity
  _atom_site_fract_x
  _atom_site_fract_y
  _atom_site_fract_z
  _atom_site_occupancy
  Fe  Fe1       1.0  0.37419676255344353  0.872112406832784  0.12399592487281826  1.0000
  Fe  Fe2       1.0  0.12423268539253111  0.625767314607469  0.12499999999999997  1.0000
  Fe  Fe3       1.0  0.3757673146074692  0.37423268539253113  0.6250000000000002  1.0000
  Fe  Fe4       1.0  0.12580323744655647  0.12788759316721587  0.6239959248728181  1.0000
  Fe  Fe5       1.0  0.6231692410624146  0.8731692410624148  0.8749999999999999  1.0000
  Fe  Fe6       1.0  0.6221124068327838  0.6241967625534436  0.6260040751271816  1.0000
  Fe  Fe7       1.0  0.8768307589375853  0.1268307589375853  0.3750000000000001  1.0000
  Fe  Fe8       1.0  0.8778875931672159  0.3758032374465566  0.1260040751271816  1.0000
  Fe  Fe9       1.0  0.5006392268835808  0.9997398711980157  0.4995204870271745  1.0000
  Fe  Fe10      1.0  0.25067011085979995  0.24964079742889705  0.2498686336134987  1.0000
  Fe  Fe11      1.0  0.5003592025711031  0.49932988914019993  0.0001313663865013081  1.0000
  Fe  Fe12      1.0  0.24932988914019988  0.7503592025711031  0.7498686336134983  1.0000
  Fe  Fe13      1.0  0.999360773116419  0.00026012880198459385  0.9995204870271743  1.0000
  Fe  Fe14      1.0  0.7502601288019843  0.24936077311641916  0.7504795129728254  1.0000
  Fe  Fe15      1.0  0.999640797428897  0.5006701108598002  0.5001313663865014  1.0000
  Fe  Fe16      1.0  0.7497398711980157  0.7506392268835808  0.2504795129728256  1.0000
  Ni  Ni1       1.0  0.12532510533872757  0.8788598928121908  0.37172576398648993  1.0000
  Ni  Ni2       1.0  0.37487813771134104  0.6248781377113408  0.3749999999999997  1.0000
  Ni  Ni3       1.0  0.12512186228865893  0.37512186228865924  0.8749999999999998  1.0000
  Ni  Ni4       1.0  0.37467489466127235  0.12114010718780918  0.8717257639864899  1.0000
  Ni  Ni5       1.0  0.8711401071878091  0.6246748946612726  0.8782742360135101  1.0000
  Ni  Ni6       1.0  0.8719598427125806  0.8780401572874194  0.6250000000000001  1.0000
  Ni  Ni7       1.0  0.6288598928121908  0.37532510533872765  0.37827423601351023  1.0000
  Ni  Ni8       1.0  0.6280401572874194  0.1219598427125808  0.12499999999999992  1.0000
  O   O1        1.0  0.8707832395084076  0.127936830786072  0.12965575045306893  1.0000
  O   O2        1.0  0.12777227219142073  0.8723525038577932  0.12859451449984455  1.0000
  O   O3        1.0  0.6291339623709936  0.1317321830276494  0.36783142575049416  1.0000
  O   O4        1.0  0.3686384021792714  0.8676601302925032  0.37186158749345993  1.0000
  O   O5        1.0  0.3805193869327887  0.11752415576478423  0.11913407143825132  1.0000
  O   O6        1.0  0.12000868991649685  0.3774993068470868  0.12105231434370473  1.0000
  O   O7        1.0  0.12204009230411339  0.12040970626983553  0.37756638146778143  1.0000
  O   O8        1.0  0.3801828581887931  0.3808915573389588  0.38283361646213476  1.0000
  O   O9        1.0  0.8675241557647839  0.6305193869327889  0.6308659285617485  1.0000
  O   O10       1.0  0.12749930684708688  0.370008689916497  0.6289476856562953  1.0000
  O   O11       1.0  0.6295902937301644  0.6279599076958867  0.8724336185322186  1.0000
  O   O12       1.0  0.36910844266104137  0.3698171418112072  0.8671663835378649  1.0000
  O   O13       1.0  0.37999131008350323  0.6225006931529132  0.6210523143437046  1.0000
  O   O14       1.0  0.11948061306721124  0.8824758442352162  0.6191340714382512  1.0000
  O   O15       1.0  0.11981714181120703  0.6191084426610414  0.8828336164621347  1.0000
  O   O16       1.0  0.37795990769588667  0.8795902937301645  0.8775663814677812  1.0000
  O   O17       1.0  0.37222772780857943  0.127647496142207  0.6285945144998446  1.0000
  O   O18       1.0  0.6292167604915927  0.872063169213928  0.629655750453069  1.0000
  O   O19       1.0  0.13136159782072868  0.13233986970749678  0.8718615874934599  1.0000
  O   O20       1.0  0.8708660376290064  0.8682678169723508  0.8678314257504943  1.0000
  O   O21       1.0  0.877936830786072  0.12078323950840765  0.620344249546931  1.0000
  O   O22       1.0  0.6223525038577934  0.37777227219142057  0.6214054855001552  1.0000
  O   O23       1.0  0.6182678169723508  0.12086603762900629  0.8821685742495057  1.0000
  O   O24       1.0  0.8823398697074967  0.3813615978207287  0.87813841250654  1.0000
  O   O25       1.0  0.3725006931529132  0.6299913100835032  0.1289476856562951  1.0000
  O   O26       1.0  0.632475844235216  0.36948061306721136  0.1308659285617485  1.0000
  O   O27       1.0  0.13089155733895866  0.6301828581887933  0.36716638353786524  1.0000
  O   O28       1.0  0.8704097062698354  0.3720400923041135  0.3724336185322187  1.0000
  O   O29       1.0  0.8776474961422067  0.6222277278085795  0.12140548550015523  1.0000
  O   O30       1.0  0.622063169213928  0.8792167604915925  0.12034424954693104  1.0000
  O   O31       1.0  0.6176601302925031  0.6186384021792714  0.3781384125065399  1.0000
  O   O32       1.0  0.8817321830276493  0.8791339623709936  0.3821685742495058  1.0000
